5h2_lig.pdb
 OpenBabel04192414473D

 48 52  0  0  0  0  0  0  0  0999 V2000
    3.8560   -3.6400    5.1500 Cl  0  0  0  0  0  0  0  0  0  0  0  0
   -3.8270    4.5620   -0.1680 C   0  0  0  0  0  0  0  0  0  0  0  0
   -4.3390    3.1700   -0.1090 O   0  0  0  0  0  0  0  0  0  0  0  0
   -3.5000    2.1260    0.1460 C   0  0  0  0  0  0  0  0  0  0  0  0
   -3.9460    0.9970    0.1140 O   0  0  0  0  0  0  0  0  0  0  0  0
   -2.2000    2.4360    0.4410 N   0  0  0  0  0  0  0  0  0  0  0  0
   -1.0380    1.6970    0.6590 C   0  0  0  0  0  0  0  0  0  0  0  0
   -0.9830    0.3700    1.0860 C   0  0  0  0  0  0  0  0  0  0  0  0
    0.2680   -0.2290    1.2440 C   0  0  0  0  0  0  0  0  0  0  0  0
    1.4540    0.4860    0.9700 C   0  0  0  0  0  0  0  0  0  0  0  0
    1.3810    1.8250    0.4760 C   0  0  0  0  0  0  0  0  0  0  0  0
    2.5050    2.5610    0.2440 O   0  0  0  0  0  0  0  0  0  0  0  0
    3.5760    2.0860   -0.5640 C   0  0  0  0  0  0  0  0  0  0  0  0
    4.5950    1.4600    0.3530 C   0  0  0  0  0  0  0  0  0  0  0  0
    4.0770    0.1170    0.8190 C   0  0  0  0  0  0  0  0  0  0  0  0
    2.7530   -0.2250    1.1210 C   0  0  0  0  0  0  0  0  0  0  0  0
    2.7100   -1.8620    1.6150 S   0  0  0  0  0  0  0  0  0  0  0  0
    4.4390   -2.0710    1.4730 C   0  0  0  0  0  0  0  0  0  0  0  0
    4.9660   -0.9070    1.0320 C   0  0  0  0  0  0  0  0  0  0  0  0
    5.1860   -3.2910    1.8350 C   0  0  0  0  0  0  0  0  0  0  0  0
    6.4990   -3.4580    1.7360 N   0  0  0  0  0  0  0  0  0  0  0  0
    6.8100   -4.6380    2.1560 N   0  0  0  0  0  0  0  0  0  0  0  0
    5.7410   -5.2800    2.5400 C   0  0  0  0  0  0  0  0  0  0  0  0
    4.6700   -4.4480    2.3820 N   0  0  0  0  0  0  0  0  0  0  0  0
    3.3390   -4.7390    2.7250 C   0  0  0  0  0  0  0  0  0  0  0  0
    2.4880   -5.3560    1.8170 C   0  0  0  0  0  0  0  0  0  0  0  0
    1.1730   -5.6410    2.1770 C   0  0  0  0  0  0  0  0  0  0  0  0
    0.6890   -5.3080    3.4360 C   0  0  0  0  0  0  0  0  0  0  0  0
    1.5240   -4.6870    4.3530 C   0  0  0  0  0  0  0  0  0  0  0  0
    2.8400   -4.4160    3.9930 C   0  0  0  0  0  0  0  0  0  0  0  0
    0.1290    2.4050    0.3680 C   0  0  0  0  0  0  0  0  0  0  0  0
   -2.0468    3.4313    0.5189 H   0  0  0  0  0  0  0  0  0  0  0  0
   -1.8887   -0.1819    1.2899 H   0  0  0  0  0  0  0  0  0  0  0  0
    0.3293   -1.2534    1.5805 H   0  0  0  0  0  0  0  0  0  0  0  0
    3.2068    1.3435   -1.2714 H   0  0  0  0  0  0  0  0  0  0  0  0
    4.0276    2.9179   -1.1044 H   0  0  0  0  0  0  0  0  0  0  0  0
    5.5342    1.3236   -0.1830 H   0  0  0  0  0  0  0  0  0  0  0  0
    4.7572    2.1076    1.2146 H   0  0  0  0  0  0  0  0  0  0  0  0
    6.0253   -0.7894    0.8573 H   0  0  0  0  0  0  0  0  0  0  0  0
    5.7089   -6.2917    2.9166 H   0  0  0  0  0  0  0  0  0  0  0  0
    2.8461   -5.6148    0.8315 H   0  0  0  0  0  0  0  0  0  0  0  0
    0.5204   -6.1277    1.4674 H   0  0  0  0  0  0  0  0  0  0  0  0
   -0.3341   -5.5320    3.6998 H   0  0  0  0  0  0  0  0  0  0  0  0
    1.1576   -4.4177    5.3326 H   0  0  0  0  0  0  0  0  0  0  0  0
    0.0530    3.4342    0.0496 H   0  0  0  0  0  0  0  0  0  0  0  0
   -4.6231    5.2288   -0.4992 H   0  0  0  0  0  0  0  0  0  0  0  0
   -3.4871    4.8661    0.8220 H   0  0  0  0  0  0  0  0  0  0  0  0
   -2.9945    4.6135   -0.8697 H   0  0  0  0  0  0  0  0  0  0  0  0
  1 30  1  0  0  0  0
  2  3  1  0  0  0  0
  3  4  1  0  0  0  0
  4  5  2  0  0  0  0
  4  6  1  0  0  0  0
  6  7  1  0  0  0  0
  7  8  2  0  0  0  0
  7 31  1  0  0  0  0
  8  9  1  0  0  0  0
  9 10  2  0  0  0  0
 10 11  1  0  0  0  0
 10 16  1  0  0  0  0
 11 12  1  0  0  0  0
 11 31  2  0  0  0  0
 12 13  1  0  0  0  0
 13 14  1  0  0  0  0
 14 15  1  0  0  0  0
 15 16  2  0  0  0  0
 15 19  1  0  0  0  0
 16 17  1  0  0  0  0
 17 18  1  0  0  0  0
 18 19  2  0  0  0  0
 18 20  1  0  0  0  0
 20 21  2  0  0  0  0
 20 24  1  0  0  0  0
 21 22  1  0  0  0  0
 22 23  2  0  0  0  0
 23 24  1  0  0  0  0
 24 25  1  0  0  0  0
 25 26  2  0  0  0  0
 25 30  1  0  0  0  0
 26 27  1  0  0  0  0
 27 28  2  0  0  0  0
 28 29  1  0  0  0  0
 29 30  2  0  0  0  0
 32  6  1  0  0  0  0
 33  8  1  0  0  0  0
 34  9  1  0  0  0  0
 35 13  1  0  0  0  0
 36 13  1  0  0  0  0
 37 14  1  0  0  0  0
 38 14  1  0  0  0  0
 39 19  1  0  0  0  0
 40 23  1  0  0  0  0
 41 26  1  0  0  0  0
 42 27  1  0  0  0  0
 43 28  1  0  0  0  0
 44 29  1  0  0  0  0
 45 31  1  0  0  0  0
 46  2  1  0  0  0  0
 47  2  1  0  0  0  0
 48  2  1  0  0  0  0
M  END
