@<TRIPOS>MOLECULE
5h2_lig.pdb
48 52 1 0 0
SMALL
AMBER ff14SB


@<TRIPOS>ATOM
      1 CL          3.8560   -3.6400    5.1500 Cl        1 5H2   -0.0823
      2 C1         -3.8270    4.5620   -0.1680 C.3       1 5H2    0.0469
      3 O2         -4.3390    3.1700   -0.1090 O.3       1 5H2   -0.3035
      4 C3         -3.5000    2.1260    0.1460 C.2       1 5H2    0.3546
      5 O4         -3.9460    0.9970    0.1140 O.2       1 5H2   -0.2422
      6 N5         -2.2000    2.4360    0.4410 N.am      1 5H2   -0.2609
      7 C6         -1.0380    1.6970    0.6590 C.ar      1 5H2    0.0373
      8 C7         -0.9830    0.3700    1.0860 C.ar      1 5H2   -0.0398
      9 C8          0.2680   -0.2290    1.2440 C.ar      1 5H2   -0.0493
     10 C9          1.4540    0.4860    0.9700 C.ar      1 5H2    0.0191
     11 C10         1.3810    1.8250    0.4760 C.ar      1 5H2    0.0852
     12 O11         2.5050    2.5610    0.2440 O.3       1 5H2   -0.3450
     13 C12         3.5760    2.0860   -0.5640 C.3       1 5H2    0.0574
     14 C13         4.5950    1.4600    0.3530 C.3       1 5H2   -0.0025
     15 C14         4.0770    0.1170    0.8190 C.ar      1 5H2   -0.0298
     16 C15         2.7530   -0.2250    1.1210 C.ar      1 5H2    0.0255
     17 S16         2.7100   -1.8620    1.6150 S.2       1 5H2   -0.0853
     18 C17         4.4390   -2.0710    1.4730 C.ar      1 5H2    0.0555
     19 C18         4.9660   -0.9070    1.0320 C.ar      1 5H2   -0.0401
     20 C19         5.1860   -3.2910    1.8350 C.ar      1 5H2    0.1665
     21 N20         6.4990   -3.4580    1.7360 N.ar      1 5H2   -0.1320
     22 N21         6.8100   -4.6380    2.1560 N.ar      1 5H2   -0.1408
     23 C22         5.7410   -5.2800    2.5400 C.ar      1 5H2    0.1157
     24 N23         4.6700   -4.4480    2.3820 N.ar      1 5H2   -0.2390
     25 C24         3.3390   -4.7390    2.7250 C.ar      1 5H2    0.0590
     26 C25         2.4880   -5.3560    1.8170 C.ar      1 5H2   -0.0386
     27 C26         1.1730   -5.6410    2.1770 C.ar      1 5H2   -0.0603
     28 C27         0.6890   -5.3080    3.4360 C.ar      1 5H2   -0.0607
     29 C28         1.5240   -4.6870    4.3530 C.ar      1 5H2   -0.0416
     30 C29         2.8400   -4.4160    3.9930 C.ar      1 5H2    0.0625
     31 C31         0.1290    2.4050    0.3680 C.ar      1 5H2   -0.0096
     32 H5         -2.0468    3.4313    0.5189 H         1 5H2    0.1581
     33 H7         -1.8887   -0.1819    1.2899 H         1 5H2    0.0643
     34 H8          0.3293   -1.2534    1.5805 H         1 5H2    0.0631
     35 H122        3.2068    1.3435   -1.2714 H         1 5H2    0.0576
     36 H123        4.0276    2.9179   -1.1044 H         1 5H2    0.0576
     37 H132        5.5342    1.3236   -0.1830 H         1 5H2    0.0340
     38 H133        4.7572    2.1076    1.2146 H         1 5H2    0.0340
     39 H18         6.0253   -0.7894    0.8573 H         1 5H2    0.0639
     40 H22         5.7089   -6.2917    2.9166 H         1 5H2    0.1041
     41 H25         2.8461   -5.6148    0.8315 H         1 5H2    0.0643
     42 H26         0.5204   -6.1277    1.4674 H         1 5H2    0.0623
     43 H27        -0.3341   -5.5320    3.6998 H         1 5H2    0.0623
     44 H28         1.1576   -4.4177    5.3326 H         1 5H2    0.0639
     45 H31         0.0530    3.4342    0.0496 H         1 5H2    0.0671
     46 H11        -4.6231    5.2288   -0.4992 H         1 5H2    0.0537
     47 H12        -3.4871    4.8661    0.8220 H         1 5H2    0.0537
     48 H13        -2.9945    4.6135   -0.8697 H         1 5H2    0.0537
@<TRIPOS>BOND
     1    1   30 1
     2    2    3 1
     3    3    4 1
     4    4    5 2
     5    4    6 am
     6    6    7 1
     7    7    8 ar
     8    7   31 ar
     9    8    9 ar
    10    9   10 ar
    11   10   11 ar
    12   10   16 1
    13   11   12 1
    14   11   31 ar
    15   12   13 1
    16   13   14 1
    17   14   15 1
    18   15   16 ar
    19   15   19 ar
    20   16   17 ar
    21   17   18 ar
    22   18   19 ar
    23   18   20 1
    24   20   21 ar
    25   20   24 ar
    26   21   22 ar
    27   22   23 ar
    28   23   24 ar
    29   24   25 1
    30   25   26 ar
    31   25   30 ar
    32   26   27 ar
    33   27   28 ar
    34   28   29 ar
    35   29   30 ar
    36   32    6 1
    37   33    8 1
    38   34    9 1
    39   35   13 1
    40   36   13 1
    41   37   14 1
    42   38   14 1
    43   39   19 1
    44   40   23 1
    45   41   26 1
    46   42   27 1
    47   43   28 1
    48   44   29 1
    49   45   31 1
    50   46    2 1
    51   47    2 1
    52   48    2 1
@<TRIPOS>SUBSTRUCTURE
     1 5H2     1 RESIDUE           4 A     5H2     0 ROOT
